Flow Title=Unsteady
Program Version=5.07
Use Restart= 0 
Initial Flow Loc=CanalPrincipal  ,CanalPrincipal  ,1000    ,0.0001
Keep SA Constant=-1
Boundary Location=CanalPrincipal  ,CanalPrincipal  ,1000    ,        ,                ,                ,                ,                                
Interval=1MIN
Flow Hydrograph= 4321 
       0       0       0       0       0       0       0       0       0       0
       0       0       0       0       0       0       0       0       0       0
       0       0       0       0      .1      .1      .1      .1      .1      .1
      .1      .2      .2      .2      .3      .3      .3      .4      .4      .5
      .5      .6      .6      .7      .7      .8      .9       1     1.1     1.1
     1.2     1.3     1.4     1.5     1.7     1.8     1.9       2     2.2     2.3
     2.5     2.6     2.8     2.9     3.1     3.3     3.5     3.7     3.9     4.1
     4.3     4.5     4.7       5     5.2     5.4     5.7       6     6.2     6.5
     6.8     7.1     7.4     7.7       8     8.3     8.6     8.9     9.2     9.6
     9.9    10.3    10.6      11    11.4    11.7    12.1    12.5    12.9    13.3
    13.7    14.1    14.5    14.9    15.3    15.8    16.2    16.7    17.1    17.6
      18    18.5    18.9    19.4    19.9    20.4    20.9    21.4    21.8    22.4
    22.9    23.4    23.9    24.4    24.9    25.4      26    26.5      27    27.6
    28.1    28.6    29.2    29.7    30.3    30.8    31.4      32    32.5    33.1
    33.6    34.2    34.8    35.4    35.9    36.5    37.1    37.6    38.2    38.8
    39.4      40    40.5    41.1    41.7    42.3    42.9    43.5      44    44.6
    45.2    45.8    46.4      47    47.6    48.2    48.7    49.3    49.9    50.5
    51.1    51.7    52.3    52.9    53.5    54.1    54.7    55.3    55.8    56.4
      57    57.6    58.2    58.8    59.4      60    60.6    61.2    61.8    62.4
      63    63.7    64.3    64.9    65.5    66.1    66.7    67.3      68    68.6
    69.2    69.8    70.4    71.1    71.7    72.3      73    73.6    74.2    74.9
    75.5    76.1    76.8    77.4    78.1    78.7    79.4      80    80.7    81.3
      82    82.6    83.3      84    84.6    85.3      86    86.6    87.3      88
    88.7    89.3      90    90.7    91.4    92.1    92.8    93.5    94.2    94.9
    95.6    96.3      97    97.7    98.4    99.2    99.9   100.6   101.3   102.1
   102.8   103.5   104.3     105   105.7   106.5   107.2     108   108.7   109.5
   110.2     111   111.7   112.5   113.2     114   114.8   115.5   116.3     117
   117.8   118.6   119.3   120.1   120.9   121.6   122.4   123.2   123.9   124.7
   125.5   126.2     127   127.8   128.5   129.3   130.1   130.8   131.6   132.4
   133.1   133.9   134.7   135.4   136.2   136.9   137.7   138.5   139.2     140
   140.8   141.6   142.3   143.1   143.9   144.6   145.4   146.2     147   147.7
   148.5   149.3   150.1   150.8   151.6   152.4   153.2     154   154.8   155.6
   156.4   157.2     158   158.8   159.6   160.4   161.2     162   162.9   163.7
   164.5   165.3   166.2     167   167.8   168.7   169.5   170.4   171.2   172.1
   172.9   173.8   174.7   175.5   176.4   177.3   178.2     179   179.9   180.8
   181.7   182.6   183.5   184.5   185.4   186.3   187.2   188.2   189.1     190
     191   191.9   192.9   193.8   194.8   195.8   196.7   197.7   198.7   199.7
   200.7   201.7   202.7   203.7   204.7   205.7   206.8   207.8   208.8   209.9
   210.9     212     213   214.1   215.2   216.3   217.3   218.4   219.5   220.6
   221.7   222.8     224   225.1   226.2   227.4   228.5   229.7   230.8     232
   233.2   234.3   235.5   236.7   237.9   239.1   240.3   241.6   242.8     244
   245.3   246.5   247.8   249.1   250.4   251.6   252.9   254.2   255.6   256.9
   258.2   259.6   260.9   262.3   263.6     265   266.4   267.8   269.2   270.7
   272.1   273.5     275   276.5   277.9   279.4   280.9   282.5     284   285.5
   287.1   288.6   290.2   291.8   293.4     295   296.6   298.3   299.9   301.6
   303.3     305   306.7   308.4   310.1   311.9   313.6   315.4   317.2     319
   320.8   322.6   324.4   326.3   328.1     330   331.9   333.8   335.7   337.6
   339.5   341.4   343.4   345.3   347.3   349.3   351.3   353.3   355.3   357.3
   359.3   361.3   363.4   365.4   367.5   369.5   371.6   373.6   375.7   377.8
   379.9     382     384   386.1   388.2   390.3   392.4   394.5   396.6   398.7
   400.7   402.8   404.9     407   409.1   411.1   413.2   415.2   417.3   419.3
   421.4   423.4   425.4   427.4   429.4   431.4   433.4   435.4   437.3   439.3
   441.2   443.1     445   446.9   448.8   450.6   452.5   454.3   456.1   457.9
   459.7   461.4   463.1   464.8   466.5   468.2   469.9   471.5   473.1   474.7
   476.2   477.8   479.3   480.8   482.2   483.7   485.1   486.5   487.9   489.2
   490.5   491.8   493.1   494.3   495.6   496.7   497.9     499   500.1   501.2
   502.3   503.3   504.3   505.3   506.2   507.2     508   508.9   509.7   510.6
   511.3   512.1   512.8   513.5   514.2   514.8   515.4     516   516.6   517.1
   517.6   518.1   518.5     519   519.4   519.7   520.1   520.4   520.7   520.9
   521.2   521.4   521.6   521.7   521.9     522     522   522.1   522.1   522.1
   522.1     522     522   521.8   521.7   521.6   521.4   521.2     521   520.7
   520.4   520.1   519.8   519.4   519.1   518.7   518.3   517.8   517.3   516.8
   516.3   515.8   515.2   514.6     514   513.4   512.7     512   511.3   510.6
   509.9   509.1   508.3   507.5   506.7   505.8   504.9     504   503.1   502.1
   501.2   500.2   499.2   498.2   497.1     496   494.9   493.8   492.7   491.5
   490.4   489.2     488   486.7   485.5   484.2   482.9   481.6   480.3   478.9
   477.6   476.2   474.8   473.3   471.9   470.5     469   467.5     466   464.5
   462.9   461.4   459.8   458.2   456.6     455   453.4   451.7   450.1   448.4
   446.7     445   443.3   441.6   439.8   438.1   436.3   434.5   432.7   430.9
   429.1   427.3   425.5   423.6   421.8   419.9     418   416.2   414.3   412.4
   410.5   408.6   406.6   404.7   402.8   400.8   398.9     397     395     393
   391.1   389.1   387.1   385.1   383.2   381.2   379.2   377.2   375.2   373.2
   371.2   369.2   367.2   365.2   363.2   361.2   359.2   357.2   355.2   353.2
   351.2   349.2   347.2   345.2   343.2   341.2   339.3   337.3   335.3   333.3
   331.3   329.4   327.4   325.4   323.5   321.5   319.6   317.6   315.7   313.8
   311.8   309.9     308   306.1   304.2   302.3   300.4   298.5   296.6   294.7
   292.9     291   289.2   287.3   285.5   283.7   281.8     280   278.2   276.4
   274.6   272.9   271.1   269.3   267.6   265.8   264.1   262.4   260.6   258.9
   257.2   255.5   253.9   252.2   250.5   248.9   247.2   245.6     244   242.3
   240.7   239.1   237.5     236   234.4   232.8   231.3   229.7   228.2   226.7
   225.2   223.6   222.1   220.7   219.2   217.7   216.3   214.8   213.4   211.9
   210.5   209.1   207.7   206.3   204.9   203.5   202.2   200.8   199.5   198.1
   196.8   195.5   194.2   192.9   191.6   190.3     189   187.7   186.5   185.2
     184   182.7   181.5   180.3   179.1   177.9   176.7   175.5   174.3   173.1
     172   170.8   169.6   168.5   167.4   166.2   165.1     164   162.9   161.8
   160.7   159.6   158.6   157.5   156.4   155.4   154.3   153.3   152.2   151.2
   150.2   149.2   148.2   147.2   146.2   145.2   144.2   143.2   142.3   141.3
   140.3   139.4   138.4   137.5   136.6   135.6   134.7   133.8   132.9     132
   131.1   130.2   129.3   128.4   127.5   126.6   125.8   124.9     124   123.2
   122.3   121.5   120.7   119.8     119   118.2   117.3   116.5   115.7   114.9
   114.1   113.3   112.5   111.7     111   110.2   109.4   108.6   107.9   107.1
   106.4   105.6   104.9   104.1   103.4   102.6   101.9   101.2   100.5    99.8
      99    98.3    97.6    96.9    96.2    95.5    94.8    94.1    93.5    92.8
    92.1    91.4    90.8    90.1    89.4    88.8    88.1    87.5    86.8    86.2
    85.6    84.9    84.3    83.7      83    82.4    81.8    81.2    80.6      80
    79.4    78.8    78.2    77.6      77    76.4    75.8    75.2    74.7    74.1
    73.5      73    72.4    71.8    71.3    70.7    70.2    69.6    69.1    68.5
      68    67.4    66.9    66.4    65.9    65.3    64.8    64.3    63.8    63.3
    62.7    62.2    61.7    61.2    60.7    60.2    59.7    59.3    58.8    58.3
    57.8    57.3    56.9    56.4    55.9    55.4      55    54.5    54.1    53.6
    53.1    52.7    52.2    51.8    51.4    50.9    50.5      50    49.6    49.2
    48.8    48.3    47.9    47.5    47.1    46.7    46.2    45.8    45.4      45
    44.6    44.2    43.8    43.4    43.1    42.7    42.3    41.9    41.5    41.1
    40.8    40.4      40    39.7    39.3    38.9    38.6    38.2    37.9    37.5
    37.2    36.8    36.5    36.1    35.8    35.5    35.1    34.8    34.5    34.1
    33.8    33.5    33.2    32.8    32.5    32.2    31.9    31.6    31.3      31
    30.7    30.4    30.1    29.8    29.5    29.2      29    28.7    28.4    28.1
    27.8    27.6    27.3      27    26.8    26.5    26.2      26    25.7    25.5
    25.2      25    24.7    24.5    24.2      24    23.7    23.5    23.3      23
    22.8    22.6    22.3    22.1    21.9    21.7    21.4    21.2      21    20.8
    20.6    20.4    20.2      20    19.8    19.6    19.4    19.2      19    18.8
    18.6    18.4    18.2      18    17.8    17.7    17.5    17.3    17.1      17
    16.8    16.6    16.4    16.3    16.1    15.9    15.8    15.6    15.5    15.3
    15.1      15    14.8    14.7    14.5    14.4    14.2    14.1    13.9    13.8
    13.7    13.5    13.4    13.2    13.1      13    12.8    12.7    12.6    12.5
    12.3    12.2    12.1      12    11.8    11.7    11.6    11.5    11.4    11.2
    11.1      11    10.9    10.8    10.7    10.6    10.5    10.4    10.3    10.2
    10.1      10     9.9     9.8     9.7     9.6     9.5     9.4     9.3     9.2
     9.1       9     8.9     8.8     8.7     8.6     8.6     8.5     8.4     8.3
     8.2     8.2     8.1       8     7.9     7.8     7.8     7.7     7.6     7.5
     7.5     7.4     7.3     7.2     7.2     7.1       7       7     6.9     6.8
     6.8     6.7     6.7     6.6     6.5     6.5     6.4     6.3     6.3     6.2
     6.2     6.1     6.1       6     5.9     5.9     5.8     5.8     5.7     5.7
     5.6     5.6     5.5     5.5     5.4     5.4     5.3     5.3     5.2     5.2
     5.1     5.1       5       5     4.9     4.9     4.9     4.8     4.8     4.7
     4.7     4.6     4.6     4.6     4.5     4.5     4.4     4.4     4.4     4.3
     4.3     4.2     4.2     4.2     4.1     4.1     4.1       4       4       4
     3.9     3.9     3.9     3.8     3.8     3.8     3.7     3.7     3.7     3.6
     3.6     3.6     3.5     3.5     3.5     3.4     3.4     3.4     3.4     3.3
     3.3     3.3     3.2     3.2     3.2     3.2     3.1     3.1     3.1     3.1
       3       3       3       3     2.9     2.9     2.9     2.9     2.8     2.8
     2.8     2.8     2.7     2.7     2.7     2.7     2.6     2.6     2.6     2.6
     2.6     2.5     2.5     2.5     2.5     2.5     2.4     2.4     2.4     2.4
     2.4     2.3     2.3     2.3     2.3     2.3     2.2     2.2     2.2     2.2
     2.2     2.1     2.1     2.1     2.1     2.1     2.1       2       2       2
       2       2       2     1.9     1.9     1.9     1.9     1.9     1.9     1.8
     1.8     1.8     1.8     1.8     1.8     1.8     1.7     1.7     1.7     1.7
     1.7     1.7     1.7     1.6     1.6     1.6     1.6     1.6     1.6     1.6
     1.5     1.5     1.5     1.5     1.5     1.5     1.5     1.5     1.4     1.4
     1.4     1.4     1.4     1.4     1.4     1.4     1.4     1.3     1.3     1.3
     1.3     1.3     1.3     1.3     1.3     1.3     1.2     1.2     1.2     1.2
     1.2     1.2     1.2     1.2     1.2     1.1     1.1     1.1     1.1     1.1
     1.1     1.1     1.1     1.1     1.1     1.1       1       1       1       1
       1       1       1       1       1       1       1      .9      .9      .9
      .9      .9      .9      .9      .9      .9      .9      .9      .9      .8
      .8      .8      .8      .8      .8      .8      .8      .8      .8      .8
      .8      .8      .8      .7      .7      .7      .7      .7      .7      .7
      .7      .7      .7      .7      .7      .7      .7      .7      .7      .6
      .6      .6      .6      .6      .6      .6      .6      .6      .6      .6
      .6      .6      .6      .6      .6      .6      .6      .5      .5      .5
      .5      .5      .5      .5      .5      .5      .5      .5      .5      .5
      .5      .5      .5      .5      .5      .5      .5      .5      .4      .4
      .4      .4      .4      .4      .4      .4      .4      .4      .4      .4
      .4      .4      .4      .4      .4      .4      .4      .4      .4      .4
      .4      .4      .4      .4      .3      .3      .3      .3      .3      .3
      .3      .3      .3      .3      .3      .3      .3      .3      .3      .3
      .3      .3      .3      .3      .3      .3      .3      .3      .3      .3
      .3      .3      .3      .3      .3      .3      .2      .2      .2      .2
      .2      .2      .2      .2      .2      .2      .2      .2      .2      .2
      .2      .2      .2      .2      .2      .2      .2      .2      .2      .2
      .2      .2      .2      .2      .2      .2      .2      .2      .2      .2
      .2      .2      .2      .2      .2      .2      .2      .2      .2      .2
      .2      .2      .2      .1      .1      .1      .1      .1      .1      .1
      .1      .1      .1      .1      .1      .1      .1      .1      .1      .1
      .1      .1      .1      .1      .1      .1      .1      .1      .1      .1
      .1      .1      .1      .1      .1      .1      .1      .1      .1      .1
      .1      .1      .1      .1      .1      .1      .1      .1      .1      .1
      .1      .1      .1      .1      .1      .1      .1      .1      .1      .1
      .1      .1      .1      .1      .1      .1      .1      .1      .1      .1
      .1      .1      .1      .1      .1      .1      .1      .1      .1      .1
      .1      .1      .1      .1      .1      .1      .1      .1      .1      .1
      .1      .1      .1      .1      .1      .1      .1      .1      .1       0
       0       0       0       0       0       0       0       0       0       0
       0       0       0       0       0       0       0       0       0       0
       0       0       0       0       0       0       0       0       0       0
       0       0       0       0       0       0       0       0       0       0
       0       0       0       0       0       0       0       0       0       0
       0       0       0       0       0       0       0       0       0       0
       0       0       0       0       0       0       0       0       0       0
       0       0       0       0       0       0       0       0       0       0
       0       0       0       0       0       0       0       0       0       0
       0       0       0       0       0       0       0       0       0       0
       0       0       0       0       0       0       0       0       0       0
       0       0       0       0       0       0       0       0       0       0
       0       0       0       0       0       0       0       0       0       0
       0       0       0       0       0       0       0       0       0       0
       0       0       0       0       0       0       0       0       0       0
       0       0       0       0       0       0       0       0       0       0
       0       0       0       0       0       0       0       0       0       0
       0       0       0       0       0       0       0       0       0       0
       0       0       0       0       0       0       0       0       0       0
       0       0       0       0       0       0       0       0       0       0
       0       0       0       0       0       0       0       0       0       0
       0       0       0       0       0       0       0       0       0       0
       0       0       0       0       0       0       0       0       0       0
       0       0       0       0       0       0       0       0       0       0
       0       0       0       0       0       0       0       0       0       0
       0       0       0       0       0       0       0       0       0       0
       0       0       0       0       0       0       0       0       0       0
       0       0       0       0       0       0       0       0       0       0
       0       0       0       0       0       0       0       0       0       0
       0       0       0       0       0       0       0       0       0       0
       0       0       0       0       0       0       0       0       0       0
       0       0       0       0       0       0       0       0       0       0
       0       0       0       0       0       0       0       0       0       0
       0       0       0       0       0       0       0       0       0       0
       0       0       0       0       0       0       0       0       0       0
       0       0       0       0       0       0       0       0       0       0
       0       0       0       0       0       0       0       0       0       0
       0       0       0       0       0       0       0       0       0       0
       0       0       0       0       0       0       0       0       0       0
       0       0       0       0       0       0       0       0       0       0
       0       0       0       0       0       0       0       0       0       0
       0       0       0       0       0       0       0       0       0       0
       0       0       0       0       0       0       0       0       0       0
       0       0       0       0       0       0       0       0       0       0
       0       0       0       0       0       0       0       0       0       0
       0       0       0       0       0       0       0       0       0       0
       0       0       0       0       0       0       0       0       0       0
       0       0       0       0       0       0       0       0       0       0
       0       0       0       0       0       0       0       0       0       0
       0       0       0       0       0       0       0       0       0       0
       0       0       0       0       0       0       0       0       0       0
       0       0       0       0       0       0       0       0       0       0
       0       0       0       0       0       0       0       0       0       0
       0       0       0       0       0       0       0       0       0       0
       0       0       0       0       0       0       0       0       0       0
       0       0       0       0       0       0       0       0       0       0
       0       0       0       0       0       0       0       0       0       0
       0       0       0       0       0       0       0       0       0       0
       0       0       0       0       0       0       0       0       0       0
       0       0       0       0       0       0       0       0       0       0
       0       0       0       0       0       0       0       0       0       0
       0       0       0       0       0       0       0       0       0       0
       0       0       0       0       0       0       0       0       0       0
       0       0       0       0       0       0       0       0       0       0
       0       0       0       0       0       0       0       0       0       0
       0       0       0       0       0       0       0       0       0       0
       0       0       0       0       0       0       0       0       0       0
       0       0       0       0       0       0       0       0       0       0
       0       0       0       0       0       0       0       0       0       0
       0       0       0       0       0       0       0       0       0       0
       0       0       0       0       0       0       0       0       0       0
       0       0       0       0       0       0       0       0       0       0
       0       0       0       0       0       0       0       0       0       0
       0       0       0       0       0       0       0       0       0       0
       0       0       0       0       0       0       0       0       0       0
       0       0       0       0       0       0       0       0       0       0
       0       0       0       0       0       0       0       0       0       0
       0       0       0       0       0       0       0       0       0       0
       0       0       0       0       0       0       0       0       0       0
       0       0       0       0       0       0       0       0       0       0
       0       0       0       0       0       0       0       0       0       0
       0       0       0       0       0       0       0       0       0       0
       0       0       0       0       0       0       0       0       0       0
       0       0       0       0       0       0       0       0       0       0
       0       0       0       0       0       0       0       0       0       0
       0       0       0       0       0       0       0       0       0       0
       0       0       0       0       0       0       0       0       0       0
       0       0       0       0       0       0       0       0       0       0
       0       0       0       0       0       0       0       0       0       0
       0       0       0       0       0       0       0       0       0       0
       0       0       0       0       0       0       0       0       0       0
       0       0       0       0       0       0       0       0       0       0
       0       0       0       0       0       0       0       0       0       0
       0       0       0       0       0       0       0       0       0       0
       0       0       0       0       0       0       0       0       0       0
       0       0       0       0       0       0       0       0       0       0
       0       0       0       0       0       0       0       0       0       0
       0       0       0       0       0       0       0       0       0       0
       0       0       0       0       0       0       0       0       0       0
       0       0       0       0       0       0       0       0       0       0
       0       0       0       0       0       0       0       0       0       0
       0       0       0       0       0       0       0       0       0       0
       0       0       0       0       0       0       0       0       0       0
       0       0       0       0       0       0       0       0       0       0
       0       0       0       0       0       0       0       0       0       0
       0       0       0       0       0       0       0       0       0       0
       0       0       0       0       0       0       0       0       0       0
       0       0       0       0       0       0       0       0       0       0
       0       0       0       0       0       0       0       0       0       0
       0       0       0       0       0       0       0       0       0       0
       0       0       0       0       0       0       0       0       0       0
       0       0       0       0       0       0       0       0       0       0
       0       0       0       0       0       0       0       0       0       0
       0       0       0       0       0       0       0       0       0       0
       0       0       0       0       0       0       0       0       0       0
       0       0       0       0       0       0       0       0       0       0
       0       0       0       0       0       0       0       0       0       0
       0       0       0       0       0       0       0       0       0       0
       0       0       0       0       0       0       0       0       0       0
       0       0       0       0       0       0       0       0       0       0
       0       0       0       0       0       0       0       0       0       0
       0       0       0       0       0       0       0       0       0       0
       0       0       0       0       0       0       0       0       0       0
       0       0       0       0       0       0       0       0       0       0
       0       0       0       0       0       0       0       0       0       0
       0       0       0       0       0       0       0       0       0       0
       0       0       0       0       0       0       0       0       0       0
       0       0       0       0       0       0       0       0       0       0
       0       0       0       0       0       0       0       0       0       0
       0       0       0       0       0       0       0       0       0       0
       0       0       0       0       0       0       0       0       0       0
       0       0       0       0       0       0       0       0       0       0
       0       0       0       0       0       0       0       0       0       0
       0       0       0       0       0       0       0       0       0       0
       0       0       0       0       0       0       0       0       0       0
       0       0       0       0       0       0       0       0       0       0
       0       0       0       0       0       0       0       0       0       0
       0       0       0       0       0       0       0       0       0       0
       0       0       0       0       0       0       0       0       0       0
       0       0       0       0       0       0       0       0       0       0
       0       0       0       0       0       0       0       0       0       0
       0       0       0       0       0       0       0       0       0       0
       0       0       0       0       0       0       0       0       0       0
       0       0       0       0       0       0       0       0       0       0
       0       0       0       0       0       0       0       0       0       0
       0       0       0       0       0       0       0       0       0       0
       0       0       0       0       0       0       0       0       0       0
       0       0       0       0       0       0       0       0       0       0
       0       0       0       0       0       0       0       0       0       0
       0       0       0       0       0       0       0       0       0       0
       0       0       0       0       0       0       0       0       0       0
       0       0       0       0       0       0       0       0       0       0
       0       0       0       0       0       0       0       0       0       0
       0       0       0       0       0       0       0       0       0       0
       0       0       0       0       0       0       0       0       0       0
       0       0       0       0       0       0       0       0       0       0
       0       0       0       0       0       0       0       0       0       0
       0       0       0       0       0       0       0       0       0       0
       0       0       0       0       0       0       0       0       0       0
       0       0       0       0       0       0       0       0       0       0
       0       0       0       0       0       0       0       0       0       0
       0       0       0       0       0       0       0       0       0       0
       0       0       0       0       0       0       0       0       0       0
       0       0       0       0       0       0       0       0       0       0
       0       0       0       0       0       0       0       0       0       0
       0       0       0       0       0       0       0       0       0       0
       0       0       0       0       0       0       0       0       0       0
       0       0       0       0       0       0       0       0       0       0
       0       0       0       0       0       0       0       0       0       0
       0       0       0       0       0       0       0       0       0       0
       0       0       0       0       0       0       0       0       0       0
       0       0       0       0       0       0       0       0       0       0
       0       0       0       0       0       0       0       0       0       0
       0       0       0       0       0       0       0       0       0       0
       0       0       0       0       0       0       0       0       0       0
       0       0       0       0       0       0       0       0       0       0
       0       0       0       0       0       0       0       0       0       0
       0       0       0       0       0       0       0       0       0       0
       0       0       0       0       0       0       0       0       0       0
       0       0       0       0       0       0       0       0       0       0
       0       0       0       0       0       0       0       0       0       0
       0       0       0       0       0       0       0       0       0       0
       0       0       0       0       0       0       0       0       0       0
       0       0       0       0       0       0       0       0       0       0
       0       0       0       0       0       0       0       0       0       0
       0       0       0       0       0       0       0       0       0       0
       0       0       0       0       0       0       0       0       0       0
       0       0       0       0       0       0       0       0       0       0
       0       0       0       0       0       0       0       0       0       0
       0       0       0       0       0       0       0       0       0       0
       0       0       0       0       0       0       0       0       0       0
       0       0       0       0       0       0       0       0       0       0
       0       0       0       0       0       0       0       0       0       0
       0       0       0       0       0       0       0       0       0       0